# generated using pymatgen
data_MgAl2O4
_symmetry_space_group_name_H-M   R3m
_cell_length_a   5.71007427
_cell_length_b   5.71007427
_cell_length_c   55.97925844
_cell_angle_alpha   90.00000000
_cell_angle_beta   90.00000000
_cell_angle_gamma   120.00000000
_symmetry_Int_Tables_number   160
_chemical_formula_structural   MgAl2O4
_chemical_formula_sum   'Mg24 Al48 O96'
_cell_volume   1580.67027601
_cell_formula_units_Z   24
loop_
 _symmetry_equiv_pos_site_id
 _symmetry_equiv_pos_as_xyz
  1  'x, y, z'
  2  '-y, x-y, z'
  3  '-x+y, -x, z'
  4  '-y, -x, z'
  5  '-x+y, y, z'
  6  'x, x-y, z'
  7  'x+2/3, y+1/3, z+1/3'
  8  '-y+2/3, x-y+1/3, z+1/3'
  9  '-x+y+2/3, -x+1/3, z+1/3'
  10  '-y+2/3, -x+1/3, z+1/3'
  11  '-x+y+2/3, y+1/3, z+1/3'
  12  'x+2/3, x-y+1/3, z+1/3'
  13  'x+1/3, y+2/3, z+2/3'
  14  '-y+1/3, x-y+2/3, z+2/3'
  15  '-x+y+1/3, -x+2/3, z+2/3'
  16  '-y+1/3, -x+2/3, z+2/3'
  17  '-x+y+1/3, y+2/3, z+2/3'
  18  'x+1/3, x-y+2/3, z+2/3'
loop_
 _atom_type_symbol
 _atom_type_oxidation_number
  Mg2+  2.0
  Al3+  3.0
  O2-  -2.0
loop_
 _atom_site_type_symbol
 _atom_site_label
 _atom_site_symmetry_multiplicity
 _atom_site_fract_x
 _atom_site_fract_y
 _atom_site_fract_z
 _atom_site_occupancy
  Mg2+  Mg0  3  0.00000000  0.00000000  0.09373141  1
  Mg2+  Mg1  3  0.00000000  0.00000000  0.34363095  1
  Mg2+  Mg2  3  0.00000000  0.00000000  0.40652325  1
  Mg2+  Mg3  3  0.00000000  0.00000000  0.50088176  1
  Mg2+  Mg4  3  0.00000000  0.00000000  0.59414122  1
  Mg2+  Mg5  3  0.00000000  0.00000000  0.65611830  1
  Mg2+  Mg6  3  0.00000000  0.00000000  0.84481258  1
  Mg2+  Mg7  3  0.00000000  0.00000000  0.90534036  1
  Al3+  Al8  9  0.16669490  0.33338981  0.95817151  1
  Al3+  Al9  9  0.16694645  0.33389291  0.70819149  1
  Al3+  Al10  9  0.16884964  0.33769927  0.45814525  1
  Al3+  Al11  9  0.16930932  0.33861864  0.20862586  1
  Al3+  Al12  3  0.00000000  0.00000000  0.15569812  1
  Al3+  Al13  3  0.00000000  0.00000000  0.24990948  1
  Al3+  Al14  3  0.00000000  0.00000000  0.74956749  1
  Al3+  Al15  3  0.00000000  0.00000000  0.99980905  1
  O2-  O16  9  0.02565683  0.51282842  0.19055870  1
  O2-  O17  9  0.03644112  0.51822056  0.68865417  1
  O2-  O18  9  0.03675170  0.51837585  0.93874303  1
  O2-  O19  9  0.03835181  0.51917591  0.43827620  1
  O2-  O20  9  0.17019483  0.34038965  0.14375791  1
  O2-  O21  9  0.18448846  0.36897693  0.39468407  1
  O2-  O22  9  0.18503077  0.37006154  0.64467232  1
  O2-  O23  9  0.18744271  0.37488542  0.89453984  1
  O2-  O24  3  0.00000000  0.00000000  0.05911709  1
  O2-  O25  3  0.00000000  0.00000000  0.18794522  1
  O2-  O26  3  0.00000000  0.00000000  0.30911055  1
  O2-  O27  3  0.00000000  0.00000000  0.44187265  1
  O2-  O28  3  0.00000000  0.00000000  0.55994073  1
  O2-  O29  3  0.00000000  0.00000000  0.69093530  1
  O2-  O30  3  0.00000000  0.00000000  0.80926476  1
  O2-  O31  3  0.00000000  0.00000000  0.94059172  1
