# generated using pymatgen
data_MgAl2O4
_symmetry_space_group_name_H-M   C2/m
_cell_length_a   10.00688800
_cell_length_b   5.76889600
_cell_length_c   33.20920048
_cell_angle_alpha   90.00000000
_cell_angle_beta   95.72616908
_cell_angle_gamma   90.00000000
_symmetry_Int_Tables_number   12
_chemical_formula_structural   MgAl2O4
_chemical_formula_sum   'Mg28 Al56 O112'
_cell_volume   1907.55759413
_cell_formula_units_Z   28
loop_
 _symmetry_equiv_pos_site_id
 _symmetry_equiv_pos_as_xyz
  1  'x, y, z'
  2  '-x, -y, -z'
  3  '-x, y, -z'
  4  'x, -y, z'
  5  'x+1/2, y+1/2, z'
  6  '-x+1/2, -y+1/2, -z'
  7  '-x+1/2, y+1/2, -z'
  8  'x+1/2, -y+1/2, z'
loop_
 _atom_type_symbol
 _atom_type_oxidation_number
  Mg2+  2.0
  Al3+  3.0
  O2-  -2.0
loop_
 _atom_site_type_symbol
 _atom_site_label
 _atom_site_symmetry_multiplicity
 _atom_site_fract_x
 _atom_site_fract_y
 _atom_site_fract_z
 _atom_site_occupancy
  Mg2+  Mg0  4  0.05352800  0.00000000  0.66073200  1
  Mg2+  Mg1  4  0.08930700  0.00000000  0.76744000  1
  Mg2+  Mg2  4  0.12486500  0.50000000  0.37486100  1
  Mg2+  Mg3  4  0.16081900  0.50000000  0.48218000  1
  Mg2+  Mg4  4  0.19355200  0.00000000  0.08719800  1
  Mg2+  Mg5  4  0.23181400  0.00000000  0.19553400  1
  Mg2+  Mg6  4  0.25000000  0.25000000  0.00000000  1
  Al3+  Al7  8  0.03665750  0.24808550  0.85674900  1
  Al3+  Al8  8  0.10712250  0.25008050  0.57145200  1
  Al3+  Al9  8  0.17850450  0.24987250  0.28553000  1
  Al3+  Al10  4  0.02206500  0.50000000  0.05517800  1
  Al3+  Al11  4  0.07147100  0.50000000  0.21419600  1
  Al3+  Al12  4  0.07152500  0.50000000  0.71448400  1
  Al3+  Al13  4  0.14242400  0.00000000  0.92704000  1
  Al3+  Al14  4  0.14284100  0.00000000  0.42853700  1
  Al3+  Al15  4  0.21431800  0.50000000  0.64297000  1
  Al3+  Al16  4  0.21575800  0.50000000  0.14308600  1
  Al3+  Al17  2  0.00000000  0.00000000  0.00000000  1
  Al3+  Al18  2  0.00000000  0.00000000  0.50000000  1
  O2-  O19  8  0.00986050  0.27728750  0.25187400  1
  O2-  O20  8  0.06162900  0.22294900  0.46231100  1
  O2-  O21  8  0.06825350  0.23656650  0.96132600  1
  O2-  O22  8  0.13219600  0.27900700  0.17621500  1
  O2-  O23  8  0.15270850  0.27710450  0.68070800  1
  O2-  O24  8  0.20425600  0.22577900  0.88951900  1
  O2-  O25  8  0.22403200  0.22292700  0.39475200  1
  O2-  O26  4  0.01896700  0.00000000  0.11078400  1
  O2-  O27  4  0.03365900  0.00000000  0.60132500  1
  O2-  O28  4  0.03663700  0.50000000  0.11064700  1
  O2-  O29  4  0.05332400  0.50000000  0.60527900  1
  O2-  O30  4  0.08841900  0.50000000  0.82361900  1
  O2-  O31  4  0.10506200  0.50000000  0.31548500  1
  O2-  O32  4  0.10953500  0.00000000  0.82638700  1
  O2-  O33  4  0.12466900  0.00000000  0.31933300  1
  O2-  O34  4  0.16098200  0.00000000  0.53764600  1
  O2-  O35  4  0.16399500  0.00000000  0.02868400  1
  O2-  O36  4  0.18064500  0.50000000  0.54158900  1
  O2-  O37  4  0.18910600  0.50000000  0.04050200  1
  O2-  O38  4  0.23219100  0.50000000  0.25185200  1
  O2-  O39  4  0.24813500  0.50000000  0.74462200  1
