# generated using pymatgen
data_BaTiO3
_symmetry_space_group_name_H-M   C222_1
_cell_length_a   5.77680318
_cell_length_b   9.95044724
_cell_length_c   14.01903216
_cell_angle_alpha   90.00000000
_cell_angle_beta   90.00000000
_cell_angle_gamma   90.00000000
_symmetry_Int_Tables_number   20
_chemical_formula_structural   BaTiO3
_chemical_formula_sum   'Ba12 Ti12 O36'
_cell_volume   805.83885596
_cell_formula_units_Z   12
loop_
 _symmetry_equiv_pos_site_id
 _symmetry_equiv_pos_as_xyz
  1  'x, y, z'
  2  '-x, -y, z+1/2'
  3  'x, -y, -z'
  4  '-x, y, -z+1/2'
  5  'x+1/2, y+1/2, z'
  6  '-x+1/2, -y+1/2, z+1/2'
  7  'x+1/2, -y+1/2, -z'
  8  '-x+1/2, y+1/2, -z+1/2'
loop_
 _atom_type_symbol
 _atom_type_oxidation_number
  Ba2+  2.0
  Ti4+  4.0
  O2-  -2.0
loop_
 _atom_site_type_symbol
 _atom_site_label
 _atom_site_symmetry_multiplicity
 _atom_site_fract_x
 _atom_site_fract_y
 _atom_site_fract_z
 _atom_site_occupancy
  Ba2+  Ba0  8  0.01296398  0.33403333  0.59628648  1
  Ba2+  Ba1  4  0.00000000  0.00075526  0.75000000  1
  Ti4+  Ti2  8  0.02088223  0.33182201  0.34613048  1
  Ti4+  Ti3  4  0.02418033  0.00000000  0.50000000  1
  O2-  O4  8  0.00108584  0.16479274  0.41986164  1
  O2-  O5  8  0.22377107  0.25639891  0.25267710  1
  O2-  O6  8  0.24777133  0.08198456  0.58058558  1
  O2-  O7  8  0.24842772  0.08401254  0.91921055  1
  O2-  O8  4  0.00000000  0.47946123  0.25000000  1
