# generated using pymatgen
data_BaAl2O4
_symmetry_space_group_name_H-M   C2
_cell_length_a   9.11018000
_cell_length_b   5.28870200
_cell_length_c   8.97048926
_cell_angle_alpha   90.00000000
_cell_angle_beta   90.64831503
_cell_angle_gamma   90.00000000
_symmetry_Int_Tables_number   5
_chemical_formula_structural   BaAl2O4
_chemical_formula_sum   'Ba4 Al8 O16'
_cell_volume   432.17971847
_cell_formula_units_Z   4
loop_
 _symmetry_equiv_pos_site_id
 _symmetry_equiv_pos_as_xyz
  1  'x, y, z'
  2  '-x, y, -z'
  3  'x+1/2, y+1/2, z'
  4  '-x+1/2, y+1/2, -z'
loop_
 _atom_type_symbol
 _atom_type_oxidation_number
  Ba2+  2.0
  Al3+  3.0
  O2-  -2.0
loop_
 _atom_site_type_symbol
 _atom_site_label
 _atom_site_symmetry_multiplicity
 _atom_site_fract_x
 _atom_site_fract_y
 _atom_site_fract_z
 _atom_site_occupancy
  Ba2+  Ba0  4  0.00041650  0.00083950  0.24976000  1
  Al3+  Al1  4  0.16745700  0.50877800  0.05426400  1
  Al3+  Al2  4  0.16766350  0.50659850  0.44566000  1
  O2-  O3  4  0.17205500  0.53133200  0.25043000  1
  O2-  O4  4  0.17770550  0.82450050  0.99100600  1
  O2-  O5  4  0.17890950  0.18054250  0.48729600  1
  O2-  O6  2  0.00000000  0.36300400  0.00000000  1
  O2-  O7  2  0.00000000  0.64465200  0.50000000  1
