# generated using pymatgen
data_TiFeO3
_symmetry_space_group_name_H-M   P-1
_cell_length_a   5.13076939
_cell_length_b   5.13936127
_cell_length_c   5.55420694
_cell_angle_alpha   91.59497479
_cell_angle_beta   115.58158959
_cell_angle_gamma   119.41011591
_symmetry_Int_Tables_number   2
_chemical_formula_structural   TiFeO3
_chemical_formula_sum   'Ti2 Fe2 O6'
_cell_volume   109.58326816
_cell_formula_units_Z   2
loop_
 _symmetry_equiv_pos_site_id
 _symmetry_equiv_pos_as_xyz
  1  'x, y, z'
  2  '-x, -y, -z'
loop_
 _atom_type_symbol
 _atom_type_oxidation_number
  Ti4+  4.0
  Fe2+  2.0
  O2-  -2.0
loop_
 _atom_site_type_symbol
 _atom_site_label
 _atom_site_symmetry_multiplicity
 _atom_site_fract_x
 _atom_site_fract_y
 _atom_site_fract_z
 _atom_site_occupancy
  Ti4+  Ti0  2  0.28859850  0.14439700  0.43632350  1
  Fe2+  Fe1  2  0.29149800  0.64745800  0.93534800  1
  O2-  O2  2  0.16195050  0.94876400  0.72944650  1
  O2-  O3  2  0.22408750  0.78062200  0.26075550  1
  O2-  O4  2  0.49036700  0.43379800  0.26556150  1
