# generated using pymatgen
data_Fe3O4
_symmetry_space_group_name_H-M   Ima2
_cell_length_a   6.08476958
_cell_length_b   8.60298261
_cell_length_c   5.99279781
_cell_angle_alpha   90.00000000
_cell_angle_beta   90.00000000
_cell_angle_gamma   90.00000000
_symmetry_Int_Tables_number   46
_chemical_formula_structural   Fe3O4
_chemical_formula_sum   'Fe12 O16'
_cell_volume   313.70598678
_cell_formula_units_Z   4
loop_
 _symmetry_equiv_pos_site_id
 _symmetry_equiv_pos_as_xyz
  1  'x, y, z'
  2  '-x, -y, z'
  3  '-x+1/2, y, z'
  4  'x+1/2, -y, z'
  5  'x+1/2, y+1/2, z+1/2'
  6  '-x+1/2, -y+1/2, z+1/2'
  7  '-x, y+1/2, z+1/2'
  8  'x, -y+1/2, z+1/2'
loop_
 _atom_type_symbol
 _atom_type_oxidation_number
  Fe2+  2.0
  Fe3+  3.0
  O2-  -2.0
loop_
 _atom_site_type_symbol
 _atom_site_label
 _atom_site_symmetry_multiplicity
 _atom_site_fract_x
 _atom_site_fract_y
 _atom_site_fract_z
 _atom_site_occupancy
  Fe3+  Fe0  4  0.00000000  0.00000000  0.99781300  1
  Fe3+  Fe1  4  0.25000000  0.13149700  0.49800850  1
  Fe2+  Fe2  4  0.25000000  0.74898150  0.74599300  1
  O2-  O3  8  0.00686000  0.73749150  0.50513400  1
  O2-  O4  4  0.25000000  0.00163450  0.23411900  1
  O2-  O5  4  0.25000000  0.00220950  0.76639100  1
