# generated using pymatgen
data_Fe3O4
_symmetry_space_group_name_H-M   C2/c
_cell_length_a   10.45121620
_cell_length_b   6.06148445
_cell_length_c   10.52592283
_cell_angle_alpha   90.00000000
_cell_angle_beta   109.57301994
_cell_angle_gamma   90.00000000
_symmetry_Int_Tables_number   15
_chemical_formula_structural   Fe3O4
_chemical_formula_sum   'Fe24 O32'
_cell_volume   628.28423960
_cell_formula_units_Z   8
loop_
 _symmetry_equiv_pos_site_id
 _symmetry_equiv_pos_as_xyz
  1  'x, y, z'
  2  '-x, -y, -z'
  3  '-x, y, -z+1/2'
  4  'x, -y, z+1/2'
  5  'x+1/2, y+1/2, z'
  6  '-x+1/2, -y+1/2, -z'
  7  '-x+1/2, y+1/2, -z+1/2'
  8  'x+1/2, -y+1/2, z+1/2'
loop_
 _atom_type_symbol
 _atom_type_oxidation_number
  Fe2+  2.0
  Fe3+  3.0
  O2-  -2.0
loop_
 _atom_site_type_symbol
 _atom_site_label
 _atom_site_symmetry_multiplicity
 _atom_site_fract_x
 _atom_site_fract_y
 _atom_site_fract_z
 _atom_site_occupancy
  Fe3+  Fe0  8  0.18462150  0.74907750  0.80961200  1
  Fe2+  Fe1  4  0.00000000  0.00000000  0.00000000  1
  Fe3+  Fe2  4  0.00000000  0.24576250  0.75000000  1
  Fe3+  Fe3  4  0.00000000  0.50000000  0.00000000  1
  Fe2+  Fe4  4  0.25000000  0.25000000  0.00000000  1
  O2-  O5  8  0.11439000  0.49278600  0.87568300  1
  O2-  O6  8  0.11731100  0.26382800  0.62604500  1
  O2-  O7  8  0.11902200  0.25757900  0.11613800  1
  O2-  O8  8  0.12367000  0.01605600  0.87057900  1
