# generated using pymatgen
data_Fe2SiO4
_symmetry_space_group_name_H-M   P2_1/c
_cell_length_a   4.88556103
_cell_length_b   10.58924758
_cell_length_c   7.84952724
_cell_angle_alpha   90.00000000
_cell_angle_beta   128.05781333
_cell_angle_gamma   90.00000000
_symmetry_Int_Tables_number   14
_chemical_formula_structural   Fe2SiO4
_chemical_formula_sum   'Fe8 Si4 O16'
_cell_volume   319.75140494
_cell_formula_units_Z   4
loop_
 _symmetry_equiv_pos_site_id
 _symmetry_equiv_pos_as_xyz
  1  'x, y, z'
  2  '-x, -y, -z'
  3  '-x, y+1/2, -z+1/2'
  4  'x, -y+1/2, z+1/2'
loop_
 _atom_type_symbol
 _atom_type_oxidation_number
  Fe2+  2.0
  Si4+  4.0
  O2-  -2.0
loop_
 _atom_site_type_symbol
 _atom_site_label
 _atom_site_symmetry_multiplicity
 _atom_site_fract_x
 _atom_site_fract_y
 _atom_site_fract_z
 _atom_site_occupancy
  Fe2+  Fe0  4  0.26853100  0.72036600  0.74928500  1
  Fe2+  Fe1  2  0.00000000  0.00000000  0.50000000  1
  Fe2+  Fe2  2  0.50000000  0.00000000  0.00000000  1
  Si4+  Si3  4  0.17390300  0.09578000  0.24798600  1
  O2-  O4  4  0.03254000  0.54888500  0.74281200  1
  O2-  O5  4  0.17665600  0.66810100  0.46092600  1
  O2-  O6  4  0.24608300  0.15900100  0.46597700  1
  O2-  O7  4  0.49386900  0.59369400  0.25494600  1
