# generated using pymatgen
data_Ga
_symmetry_space_group_name_H-M   Cmcm
_cell_length_a   10.57276140
_cell_length_b   13.51860261
_cell_length_c   5.11066719
_cell_angle_alpha   90.00000000
_cell_angle_beta   90.00000000
_cell_angle_gamma   90.00000000
_symmetry_Int_Tables_number   63
_chemical_formula_structural   Ga
_chemical_formula_sum   Ga40
_cell_volume   730.46234573
_cell_formula_units_Z   40
loop_
 _symmetry_equiv_pos_site_id
 _symmetry_equiv_pos_as_xyz
  1  'x, y, z'
  2  '-x, -y, -z'
  3  '-x, -y, z+1/2'
  4  'x, y, -z+1/2'
  5  'x, -y, -z'
  6  '-x, y, z'
  7  '-x, y, -z+1/2'
  8  'x, -y, z+1/2'
  9  'x+1/2, y+1/2, z'
  10  '-x+1/2, -y+1/2, -z'
  11  '-x+1/2, -y+1/2, z+1/2'
  12  'x+1/2, y+1/2, -z+1/2'
  13  'x+1/2, -y+1/2, -z'
  14  '-x+1/2, y+1/2, z'
  15  '-x+1/2, y+1/2, -z+1/2'
  16  'x+1/2, -y+1/2, z+1/2'
loop_
 _atom_type_symbol
 _atom_type_oxidation_number
  Ga0+  0.0
loop_
 _atom_site_type_symbol
 _atom_site_label
 _atom_site_symmetry_multiplicity
 _atom_site_fract_x
 _atom_site_fract_y
 _atom_site_fract_z
 _atom_site_occupancy
  Ga0+  Ga0  8  0.00000000  0.39512042  0.50009119  1
  Ga0+  Ga1  8  0.12607644  0.21063604  0.75000000  1
  Ga0+  Ga2  8  0.22584853  0.13759133  0.25000000  1
  Ga0+  Ga3  8  0.22687539  0.44733519  0.25000000  1
  Ga0+  Ga4  4  0.00000000  0.01139893  0.25000000  1
  Ga0+  Ga5  4  0.00000000  0.21583319  0.25000000  1
