# generated using pymatgen
data_Al2O3
_symmetry_space_group_name_H-M   C2/m
_cell_length_a   11.79280399
_cell_length_b   2.90747708
_cell_length_c   5.61515557
_cell_angle_alpha   90.00000000
_cell_angle_beta   104.06324559
_cell_angle_gamma   90.00000000
_symmetry_Int_Tables_number   12
_chemical_formula_structural   Al2O3
_chemical_formula_sum   'Al8 O12'
_cell_volume   186.75811646
_cell_formula_units_Z   4
loop_
 _symmetry_equiv_pos_site_id
 _symmetry_equiv_pos_as_xyz
  1  'x, y, z'
  2  '-x, -y, -z'
  3  '-x, y, -z'
  4  'x, -y, z'
  5  'x+1/2, y+1/2, z'
  6  '-x+1/2, -y+1/2, -z'
  7  '-x+1/2, y+1/2, -z'
  8  'x+1/2, -y+1/2, z'
loop_
 _atom_type_symbol
 _atom_type_oxidation_number
  Al3+  3.0
  O2-  -2.0
loop_
 _atom_site_type_symbol
 _atom_site_label
 _atom_site_symmetry_multiplicity
 _atom_site_fract_x
 _atom_site_fract_y
 _atom_site_fract_z
 _atom_site_occupancy
  Al3+  Al0  4  0.09047209  0.00000000  0.79564631  1
  Al3+  Al1  4  0.15803237  0.50000000  0.31746212  1
  O2-  O2  4  0.00478404  0.50000000  0.74245377  1
  O2-  O3  4  0.16067884  0.00000000  0.10901396  1
  O2-  O4  4  0.17349075  0.00000000  0.56690511  1
