# generated using pymatgen
data_K2SO4
_symmetry_space_group_name_H-M   Pnma
_cell_length_a   7.42958663
_cell_length_b   5.73672509
_cell_length_c   10.01581510
_cell_angle_alpha   90.00000000
_cell_angle_beta   90.00000000
_cell_angle_gamma   90.00000000
_symmetry_Int_Tables_number   62
_chemical_formula_structural   K2SO4
_chemical_formula_sum   'K8 S4 O16'
_cell_volume   426.88902351
_cell_formula_units_Z   4
loop_
 _symmetry_equiv_pos_site_id
 _symmetry_equiv_pos_as_xyz
  1  'x, y, z'
  2  '-x, -y, -z'
  3  '-x+1/2, -y, z+1/2'
  4  'x+1/2, y, -z+1/2'
  5  'x+1/2, -y+1/2, -z+1/2'
  6  '-x+1/2, y+1/2, z+1/2'
  7  '-x, y+1/2, -z'
  8  'x, -y+1/2, z'
loop_
 _atom_type_symbol
 _atom_type_oxidation_number
  K+  1.0
  S6+  6.0
  O2-  -2.0
loop_
 _atom_site_type_symbol
 _atom_site_label
 _atom_site_symmetry_multiplicity
 _atom_site_fract_x
 _atom_site_fract_y
 _atom_site_fract_z
 _atom_site_occupancy
  K+  K0  4  0.00867307  0.75000000  0.70286422  1
  K+  K1  4  0.17020316  0.25000000  0.91230079  1
  S6+  S2  4  0.23164415  0.25000000  0.58080124  1
  O2-  O3  8  0.20054276  0.53946990  0.15010265  1
  O2-  O4  4  0.03348910  0.25000000  0.58108044  1
  O2-  O5  4  0.19831332  0.75000000  0.94191320  1
