# generated using pymatgen
data_K2SO4
_symmetry_space_group_name_H-M   C2/c
_cell_length_a   6.03037200
_cell_length_b   9.96455400
_cell_length_c   8.02972818
_cell_angle_alpha   90.00000000
_cell_angle_beta   90.18789119
_cell_angle_gamma   90.00000000
_symmetry_Int_Tables_number   15
_chemical_formula_structural   K2SO4
_chemical_formula_sum   'K8 S4 O16'
_cell_volume   482.50351016
_cell_formula_units_Z   4
loop_
 _symmetry_equiv_pos_site_id
 _symmetry_equiv_pos_as_xyz
  1  'x, y, z'
  2  '-x, -y, -z'
  3  '-x, y, -z+1/2'
  4  'x, -y, z+1/2'
  5  'x+1/2, y+1/2, z'
  6  '-x+1/2, -y+1/2, -z'
  7  '-x+1/2, y+1/2, -z+1/2'
  8  'x+1/2, -y+1/2, z+1/2'
loop_
 _atom_type_symbol
 _atom_type_oxidation_number
  K+  1.0
  S6+  6.0
  O2-  -2.0
loop_
 _atom_site_type_symbol
 _atom_site_label
 _atom_site_symmetry_multiplicity
 _atom_site_fract_x
 _atom_site_fract_y
 _atom_site_fract_z
 _atom_site_occupancy
  K+  K0  4  0.00000000  0.00000000  0.00000000  1
  K+  K1  4  0.00000000  0.30804500  0.75000000  1
  S6+  S2  4  0.00000000  0.35071700  0.25000000  1
  O2-  O3  8  0.01297850  0.26442950  0.09901700  1
  O2-  O4  8  0.20185200  0.43912300  0.25900000  1
