# generated using pymatgen
data_K2SO4
_symmetry_space_group_name_H-M   Cmcm
_cell_length_a   5.88584674
_cell_length_b   9.87694008
_cell_length_c   7.86671805
_cell_angle_alpha   90.00000000
_cell_angle_beta   90.00000000
_cell_angle_gamma   90.00000000
_symmetry_Int_Tables_number   63
_chemical_formula_structural   K2SO4
_chemical_formula_sum   'K8 S4 O16'
_cell_volume   457.32501095
_cell_formula_units_Z   4
loop_
 _symmetry_equiv_pos_site_id
 _symmetry_equiv_pos_as_xyz
  1  'x, y, z'
  2  '-x, -y, -z'
  3  '-x, -y, z+1/2'
  4  'x, y, -z+1/2'
  5  'x, -y, -z'
  6  '-x, y, z'
  7  '-x, y, -z+1/2'
  8  'x, -y, z+1/2'
  9  'x+1/2, y+1/2, z'
  10  '-x+1/2, -y+1/2, -z'
  11  '-x+1/2, -y+1/2, z+1/2'
  12  'x+1/2, y+1/2, -z+1/2'
  13  'x+1/2, -y+1/2, -z'
  14  '-x+1/2, y+1/2, z'
  15  '-x+1/2, y+1/2, -z+1/2'
  16  'x+1/2, -y+1/2, z+1/2'
loop_
 _atom_type_symbol
 _atom_type_oxidation_number
  K+  1.0
  S6+  6.0
  O2-  -2.0
loop_
 _atom_site_type_symbol
 _atom_site_label
 _atom_site_symmetry_multiplicity
 _atom_site_fract_x
 _atom_site_fract_y
 _atom_site_fract_z
 _atom_site_occupancy
  K+  K0  4  0.00000000  0.00000000  0.00000000  1
  K+  K1  4  0.00000000  0.30964789  0.25000000  1
  S6+  S2  4  0.00000000  0.34791804  0.75000000  1
  O2-  O3  8  0.00000000  0.26190151  0.59690444  1
  O2-  O4  8  0.20519768  0.43556442  0.75000000  1
