# generated using pymatgen
data_CaCO3
_symmetry_space_group_name_H-M   P2_1/c
_cell_length_a   6.34189696
_cell_length_b   5.02851577
_cell_length_c   8.03480384
_cell_angle_alpha   90.00000000
_cell_angle_beta   107.05924883
_cell_angle_gamma   90.00000000
_symmetry_Int_Tables_number   14
_chemical_formula_structural   CaCO3
_chemical_formula_sum   'Ca4 C4 O12'
_cell_volume   244.95879368
_cell_formula_units_Z   4
loop_
 _symmetry_equiv_pos_site_id
 _symmetry_equiv_pos_as_xyz
  1  'x, y, z'
  2  '-x, -y, -z'
  3  '-x, y+1/2, -z+1/2'
  4  'x, -y+1/2, z+1/2'
loop_
 _atom_type_symbol
 _atom_type_oxidation_number
  Ca2+  2.0
  C4+  4.0
  O2-  -2.0
loop_
 _atom_site_type_symbol
 _atom_site_label
 _atom_site_symmetry_multiplicity
 _atom_site_fract_x
 _atom_site_fract_y
 _atom_site_fract_z
 _atom_site_occupancy
  Ca2+  Ca0  4  0.24302599  0.24629910  0.73422641  1
  C4+  C1  4  0.25366433  0.74702309  0.99871480  1
  O2-  O2  4  0.12770000  0.60108359  0.87730912  1
  O2-  O3  4  0.24255117  0.00274619  0.98573538  1
  O2-  O4  4  0.38641566  0.63652542  0.13400525  1
