# generated using pymatgen
data_CePO4
_symmetry_space_group_name_H-M   P2_1/c
_cell_length_a   6.47039012
_cell_length_b   7.03293869
_cell_length_c   8.19969327
_cell_angle_alpha   90.00000000
_cell_angle_beta   126.27495269
_cell_angle_gamma   90.00000000
_symmetry_Int_Tables_number   14
_chemical_formula_structural   CePO4
_chemical_formula_sum   'Ce4 P4 O16'
_cell_volume   300.81583919
_cell_formula_units_Z   4
loop_
 _symmetry_equiv_pos_site_id
 _symmetry_equiv_pos_as_xyz
  1  'x, y, z'
  2  '-x, -y, -z'
  3  '-x, y+1/2, -z+1/2'
  4  'x, -y+1/2, z+1/2'
loop_
 _atom_type_symbol
 _atom_type_oxidation_number
  Ce3+  3.0
  P5+  5.0
  O2-  -2.0
loop_
 _atom_site_type_symbol
 _atom_site_label
 _atom_site_symmetry_multiplicity
 _atom_site_fract_x
 _atom_site_fract_y
 _atom_site_fract_z
 _atom_site_occupancy
  Ce3+  Ce0  4  0.18408328  0.15851019  0.28441648  1
  P5+  P1  4  0.30706174  0.66245582  0.19517035  1
  O2-  O2  4  0.11629828  0.66953010  0.61770028  1
  O2-  O3  4  0.19222151  0.50560426  0.24923723  1
  O2-  O4  4  0.33260461  0.60515901  0.02682306  1
  O2-  O5  4  0.41885248  0.21327181  0.12751467  1
