# generated using pymatgen
data_CePO4
_symmetry_space_group_name_H-M   P6_222
_cell_length_a   7.14392881
_cell_length_b   7.14392881
_cell_length_c   6.43877692
_cell_angle_alpha   90.00000000
_cell_angle_beta   90.00000000
_cell_angle_gamma   120.00000000
_symmetry_Int_Tables_number   180
_chemical_formula_structural   CePO4
_chemical_formula_sum   'Ce3 P3 O12'
_cell_volume   284.58253703
_cell_formula_units_Z   3
loop_
 _symmetry_equiv_pos_site_id
 _symmetry_equiv_pos_as_xyz
  1  'x, y, z'
  2  'x-y, x, z+1/3'
  3  '-y, x-y, z+2/3'
  4  '-x, -y, z'
  5  '-x+y, -x, z+1/3'
  6  'y, -x+y, z+2/3'
  7  '-y, -x, -z+2/3'
  8  '-x, -x+y, -z+1/3'
  9  '-x+y, y, -z'
  10  'y, x, -z+2/3'
  11  'x, x-y, -z+1/3'
  12  'x-y, -y, -z'
loop_
 _atom_type_symbol
 _atom_type_oxidation_number
  Ce3+  3.0
  P5+  5.0
  O2-  -2.0
loop_
 _atom_site_type_symbol
 _atom_site_label
 _atom_site_symmetry_multiplicity
 _atom_site_fract_x
 _atom_site_fract_y
 _atom_site_fract_z
 _atom_site_occupancy
  Ce3+  Ce0  3  0.00000000  0.50000000  0.66666667  1
  P5+  P1  3  0.00000000  0.50000000  0.16666667  1
  O2-  O2  12  0.13701851  0.44669932  0.31249938  1
