# generated using pymatgen
data_Zn
_symmetry_space_group_name_H-M   'P 1'
_cell_length_a   4.53634035
_cell_length_b   2.61697402
_cell_length_c   7.47191551
_cell_angle_alpha   90.00000000
_cell_angle_beta   102.29977629
_cell_angle_gamma   90.00000000
_symmetry_Int_Tables_number   1
_chemical_formula_structural   Zn
_chemical_formula_sum   Zn6
_cell_volume   86.66668514
_cell_formula_units_Z   6
loop_
 _symmetry_equiv_pos_site_id
 _symmetry_equiv_pos_as_xyz
  1  'x, y, z'
loop_
 _atom_site_type_symbol
 _atom_site_label
 _atom_site_symmetry_multiplicity
 _atom_site_fract_x
 _atom_site_fract_y
 _atom_site_fract_z
 _atom_site_occupancy
  Zn  Zn0  1  0.00000000  0.00000000  0.00000000  1
  Zn  Zn1  1  0.27801786  0.50000000  0.33450498  1
  Zn  Zn2  1  0.72198214  0.50000000  0.66549502  1
  Zn  Zn3  1  0.50000000  0.50000000  0.00000000  1
  Zn  Zn4  1  0.77801786  0.00000000  0.33450498  1
  Zn  Zn5  1  0.22198214  0.00000000  0.66549502  1
