# generated using pymatgen
data_CaWO4
_symmetry_space_group_name_H-M   C2/c
_cell_length_a   7.41172837
_cell_length_b   11.37444400
_cell_length_c   5.28814989
_cell_angle_alpha   90.00000000
_cell_angle_beta   133.00916287
_cell_angle_gamma   90.00000000
_symmetry_Int_Tables_number   15
_chemical_formula_structural   CaWO4
_chemical_formula_sum   'Ca4 W4 O16'
_cell_volume   325.99888536
_cell_formula_units_Z   4
loop_
 _symmetry_equiv_pos_site_id
 _symmetry_equiv_pos_as_xyz
  1  'x, y, z'
  2  '-x, -y, -z'
  3  '-x, y, -z+1/2'
  4  'x, -y, z+1/2'
  5  'x+1/2, y+1/2, z'
  6  '-x+1/2, -y+1/2, -z'
  7  '-x+1/2, y+1/2, -z+1/2'
  8  'x+1/2, -y+1/2, z+1/2'
loop_
 _atom_type_symbol
 _atom_type_oxidation_number
  Ca2+  2.0
  W6+  6.0
  O2-  -2.0
loop_
 _atom_site_type_symbol
 _atom_site_label
 _atom_site_symmetry_multiplicity
 _atom_site_fract_x
 _atom_site_fract_y
 _atom_site_fract_z
 _atom_site_occupancy
  Ca2+  Ca0  4  0.00000000  0.37247300  0.75000000  1
  W6+  W1  4  0.00000000  0.11643200  0.25000000  1
  O2-  O2  8  0.14884550  0.79005650  0.65804800  1
  O2-  O3  8  0.24015550  0.96688450  0.14860700  1
