# generated using pymatgen
data_CaWO4
_symmetry_space_group_name_H-M   Cmce
_cell_length_a   7.76883800
_cell_length_b   13.50776600
_cell_length_c   5.36212200
_cell_angle_alpha   90.00000000
_cell_angle_beta   90.00000000
_cell_angle_gamma   90.00000000
_symmetry_Int_Tables_number   64
_chemical_formula_structural   CaWO4
_chemical_formula_sum   'Ca8 W8 O32'
_cell_volume   562.69918339
_cell_formula_units_Z   8
loop_
 _symmetry_equiv_pos_site_id
 _symmetry_equiv_pos_as_xyz
  1  'x, y, z'
  2  '-x, -y, -z'
  3  '-x+1/2, -y, z+1/2'
  4  'x+1/2, y, -z+1/2'
  5  'x, -y, -z'
  6  '-x, y, z'
  7  '-x+1/2, y, -z+1/2'
  8  'x+1/2, -y, z+1/2'
  9  'x+1/2, y+1/2, z'
  10  '-x+1/2, -y+1/2, -z'
  11  '-x, -y+1/2, z+1/2'
  12  'x, y+1/2, -z+1/2'
  13  'x+1/2, -y+1/2, -z'
  14  '-x+1/2, y+1/2, z'
  15  '-x, y+1/2, -z+1/2'
  16  'x, -y+1/2, z+1/2'
loop_
 _atom_type_symbol
 _atom_type_oxidation_number
  Ca2+  2.0
  W6+  6.0
  O2-  -2.0
loop_
 _atom_site_type_symbol
 _atom_site_label
 _atom_site_symmetry_multiplicity
 _atom_site_fract_x
 _atom_site_fract_y
 _atom_site_fract_z
 _atom_site_occupancy
  Ca2+  Ca0  8  0.25000000  0.16235600  0.25000000  1
  W6+  W1  8  0.00000000  0.09061700  0.70826400  1
  O2-  O2  8  0.00000000  0.09209700  0.05511000  1
  O2-  O3  8  0.00000000  0.19884100  0.49776000  1
  O2-  O4  8  0.14995300  0.00000000  0.50000000  1
  O2-  O5  8  0.25000000  0.14706700  0.75000000  1
