# generated using pymatgen
data_TiO2
_symmetry_space_group_name_H-M   Pbca
_cell_length_a   5.14911908
_cell_length_b   9.19420330
_cell_length_c   5.45912219
_cell_angle_alpha   90.00000000
_cell_angle_beta   90.00000000
_cell_angle_gamma   90.00000000
_symmetry_Int_Tables_number   61
_chemical_formula_structural   TiO2
_chemical_formula_sum   'Ti8 O16'
_cell_volume   258.44602278
_cell_formula_units_Z   8
loop_
 _symmetry_equiv_pos_site_id
 _symmetry_equiv_pos_as_xyz
  1  'x, y, z'
  2  '-x, -y, -z'
  3  '-x+1/2, -y, z+1/2'
  4  'x+1/2, y, -z+1/2'
  5  'x+1/2, -y+1/2, -z'
  6  '-x+1/2, y+1/2, z'
  7  '-x, y+1/2, -z+1/2'
  8  'x, -y+1/2, z+1/2'
loop_
 _atom_type_symbol
 _atom_type_oxidation_number
  Ti4+  4.0
  O2-  -2.0
loop_
 _atom_site_type_symbol
 _atom_site_label
 _atom_site_symmetry_multiplicity
 _atom_site_fract_x
 _atom_site_fract_y
 _atom_site_fract_z
 _atom_site_occupancy
  Ti4+  Ti0  8  0.13791051  0.62896949  0.40258238  1
  O2-  O1  8  0.03528988  0.23029004  0.38999398  1
  O2-  O2  8  0.18336867  0.01047947  0.14881141  1
