# generated using pymatgen
data_Pb3O4
_symmetry_space_group_name_H-M   Pbam
_cell_length_a   8.58897156
_cell_length_b   9.18554587
_cell_length_c   6.65011153
_cell_angle_alpha   90.00000000
_cell_angle_beta   90.00000000
_cell_angle_gamma   90.00000000
_symmetry_Int_Tables_number   55
_chemical_formula_structural   Pb3O4
_chemical_formula_sum   'Pb12 O16'
_cell_volume   524.65650749
_cell_formula_units_Z   4
loop_
 _symmetry_equiv_pos_site_id
 _symmetry_equiv_pos_as_xyz
  1  'x, y, z'
  2  '-x, -y, -z'
  3  '-x, -y, z'
  4  'x, y, -z'
  5  'x+1/2, -y+1/2, -z'
  6  '-x+1/2, y+1/2, z'
  7  '-x+1/2, y+1/2, -z'
  8  'x+1/2, -y+1/2, z'
loop_
 _atom_type_symbol
 _atom_type_oxidation_number
  Pb2.67+  2.666666666666666
  O2-  -2.0
loop_
 _atom_site_type_symbol
 _atom_site_label
 _atom_site_symmetry_multiplicity
 _atom_site_fract_x
 _atom_site_fract_y
 _atom_site_fract_z
 _atom_site_occupancy
  Pb2.67+  Pb0  4  0.00000000  0.50000000  0.25083921  1
  Pb2.67+  Pb1  4  0.13220307  0.17124340  0.00000000  1
  Pb2.67+  Pb2  4  0.15519926  0.84461379  0.50000000  1
  O2-  O3  8  0.17167533  0.32863874  0.25080170  1
  O2-  O4  4  0.09831925  0.62943764  0.00000000  1
  O2-  O5  4  0.14049984  0.59120490  0.50000000  1
