# generated using pymatgen
data_Pb3O4
_symmetry_space_group_name_H-M   Pbam
_cell_length_a   6.89814249
_cell_length_b   9.95398759
_cell_length_c   3.45373082
_cell_angle_alpha   90.00000000
_cell_angle_beta   90.00000000
_cell_angle_gamma   90.00000000
_symmetry_Int_Tables_number   55
_chemical_formula_structural   Pb3O4
_chemical_formula_sum   'Pb6 O8'
_cell_volume   237.14705873
_cell_formula_units_Z   2
loop_
 _symmetry_equiv_pos_site_id
 _symmetry_equiv_pos_as_xyz
  1  'x, y, z'
  2  '-x, -y, -z'
  3  '-x, -y, z'
  4  'x, y, -z'
  5  'x+1/2, -y+1/2, -z'
  6  '-x+1/2, y+1/2, z'
  7  '-x+1/2, y+1/2, -z'
  8  'x+1/2, -y+1/2, z'
loop_
 _atom_type_symbol
 _atom_type_oxidation_number
  Pb2.67+  2.666666666666666
  O2-  -2.0
loop_
 _atom_site_type_symbol
 _atom_site_label
 _atom_site_symmetry_multiplicity
 _atom_site_fract_x
 _atom_site_fract_y
 _atom_site_fract_z
 _atom_site_occupancy
  Pb2.67+  Pb0  4  0.00017667  0.81064598  0.00000000  1
  Pb2.67+  Pb1  2  0.00000000  0.50000000  0.50000000  1
  O2-  O2  4  0.14850525  0.69178562  0.50000000  1
  O2-  O3  4  0.15912875  0.40910076  0.00000000  1
