# generated using pymatgen
data_Li2O
_symmetry_space_group_name_H-M   Pnma
_cell_length_a   5.04457170
_cell_length_b   3.08088234
_cell_length_c   5.81651896
_cell_angle_alpha   90.00000000
_cell_angle_beta   90.00000000
_cell_angle_gamma   90.00000000
_symmetry_Int_Tables_number   62
_chemical_formula_structural   Li2O
_chemical_formula_sum   'Li8 O4'
_cell_volume   90.39877805
_cell_formula_units_Z   4
loop_
 _symmetry_equiv_pos_site_id
 _symmetry_equiv_pos_as_xyz
  1  'x, y, z'
  2  '-x, -y, -z'
  3  '-x+1/2, -y, z+1/2'
  4  'x+1/2, y, -z+1/2'
  5  'x+1/2, -y+1/2, -z+1/2'
  6  '-x+1/2, y+1/2, z+1/2'
  7  '-x, y+1/2, -z'
  8  'x, -y+1/2, z'
loop_
 _atom_type_symbol
 _atom_type_oxidation_number
  Li+  1.0
  O2-  -2.0
loop_
 _atom_site_type_symbol
 _atom_site_label
 _atom_site_symmetry_multiplicity
 _atom_site_fract_x
 _atom_site_fract_y
 _atom_site_fract_z
 _atom_site_occupancy
  Li+  Li0  4  0.01154527  0.25000000  0.84068343  1
  Li+  Li1  4  0.14113996  0.25000000  0.42020971  1
  O2-  O2  4  0.24646164  0.75000000  0.60037010  1
