# generated using pymatgen
data_Li2O
_symmetry_space_group_name_H-M   P1
_cell_length_a   9.71550927
_cell_length_b   10.05902595
_cell_length_c   10.11815425
_cell_angle_alpha   91.51237550
_cell_angle_beta   91.25258599
_cell_angle_gamma   96.37024057
_symmetry_Int_Tables_number   1
_chemical_formula_structural   Li2O
_chemical_formula_sum   'Li68 O34'
_cell_volume   982.07909826
_cell_formula_units_Z   34
loop_
 _symmetry_equiv_pos_site_id
 _symmetry_equiv_pos_as_xyz
  1  'x, y, z'
loop_
 _atom_type_symbol
 _atom_type_oxidation_number
  Li+  1.0
  O2-  -2.0
loop_
 _atom_site_type_symbol
 _atom_site_label
 _atom_site_symmetry_multiplicity
 _atom_site_fract_x
 _atom_site_fract_y
 _atom_site_fract_z
 _atom_site_occupancy
  Li+  Li0  1  0.02304100  0.42607200  0.99314600  1
  Li+  Li1  1  0.02409800  0.99068300  0.21675900  1
  Li+  Li2  1  0.04907300  0.00566900  0.44604500  1
  Li+  Li3  1  0.06033100  0.29095300  0.55005900  1
  Li+  Li4  1  0.07508700  0.91639200  0.81135900  1
  Li+  Li5  1  0.07986400  0.43813200  0.76522600  1
  Li+  Li6  1  0.09110500  0.72132200  0.95479000  1
  Li+  Li7  1  0.13909900  0.40785900  0.25260300  1
  Li+  Li8  1  0.15244500  0.80306100  0.24352600  1
  Li+  Li9  1  0.16454100  0.75906200  0.54905600  1
  Li+  Li10  1  0.17116400  0.93205400  0.04788400  1
  Li+  Li11  1  0.17265100  0.65924800  0.77627400  1
  Li+  Li12  1  0.21634500  0.17289200  0.08784700  1
  Li+  Li13  1  0.22468200  0.21232300  0.80513600  1
  Li+  Li14  1  0.23363900  0.50428500  0.59283700  1
  Li+  Li15  1  0.24887500  0.17330700  0.58153100  1
  Li+  Li16  1  0.25079700  0.63095500  0.11587500  1
  Li+  Li17  1  0.27537000  0.20261500  0.32536500  1
  Li+  Li18  1  0.28981200  0.03281500  0.88119600  1
  Li+  Li19  1  0.29938300  0.42322100  0.02907500  1
  Li+  Li20  1  0.30849900  0.92448600  0.67926900  1
  Li+  Li21  1  0.31902600  0.43608800  0.80289900  1
  Li+  Li22  1  0.34278300  0.95488300  0.38320400  1
  Li+  Li23  1  0.36928000  0.65496500  0.91899700  1
  Li+  Li24  1  0.37203000  0.68348400  0.40870800  1
  Li+  Li25  1  0.38336800  0.51996900  0.24876500  1
  Li+  Li26  1  0.39642600  0.35759100  0.59476900  1
  Li+  Li27  1  0.39748400  0.01327700  0.16859500  1
  Li+  Li28  1  0.41711300  0.71383900  0.69037700  1
  Li+  Li29  1  0.43134600  0.89223200  0.90972100  1
  Li+  Li30  1  0.46855300  0.25618700  0.08283800  1
  Li+  Li31  1  0.47926400  0.19084200  0.84740500  1
  Li+  Li32  1  0.51409500  0.15621900  0.61516700  1
  Li+  Li33  1  0.52008900  0.80957100  0.17676500  1
  Li+  Li34  1  0.53572500  0.38923100  0.33255200  1
  Li+  Li35  1  0.54341300  0.47435900  0.02731800  1
  Li+  Li36  1  0.55341000  0.56125000  0.56035000  1
  Li+  Li37  1  0.55592300  0.91367500  0.46090900  1
  Li+  Li38  1  0.56149600  0.42216400  0.79887700  1
  Li+  Li39  1  0.56196800  0.88876100  0.67479300  1
  Li+  Li40  1  0.56840000  0.17195000  0.31860700  1
  Li+  Li41  1  0.59950000  0.69831000  0.99075200  1
  Li+  Li42  1  0.62405800  0.04029800  0.03576700  1
  Li+  Li43  1  0.63838700  0.62654000  0.22914100  1
  Li+  Li44  1  0.67157200  0.34832500  0.56102900  1
  Li+  Li45  1  0.67716100  0.66201100  0.77339700  1
  Li+  Li46  1  0.70803400  0.08755600  0.76202400  1
  Li+  Li47  1  0.71153300  0.96489800  0.23481200  1
  Li+  Li48  1  0.72030900  0.88544300  0.90376500  1
  Li+  Li49  1  0.72315400  0.61217200  0.44329900  1
  Li+  Li50  1  0.74885400  0.27308900  0.89859200  1
  Li+  Li51  1  0.77777200  0.12205700  0.47398600  1
  Li+  Li52  1  0.77991900  0.45910100  0.10274200  1
  Li+  Li53  1  0.81504400  0.49006300  0.80537500  1
  Li+  Li54  1  0.81609800  0.22924200  0.13273700  1
  Li+  Li55  1  0.82545200  0.40367300  0.31590800  1
  Li+  Li56  1  0.82924700  0.90016100  0.45268300  1
  Li+  Li57  1  0.83950300  0.28083900  0.68368400  1
  Li+  Li58  1  0.84305000  0.71749500  0.98432100  1
  Li+  Li59  1  0.85399300  0.78143100  0.20252800  1
  Li+  Li60  1  0.86045300  0.90492900  0.66896000  1
  Li+  Li61  1  0.91031300  0.48529400  0.56469600  1
  Li+  Li62  1  0.92649700  0.96040600  0.97809400  1
  Li+  Li63  1  0.92744700  0.70111400  0.66670000  1
  Li+  Li64  1  0.96500600  0.18181200  0.90480900  1
  Li+  Li65  1  0.96655800  0.20592500  0.35518100  1
  Li+  Li66  1  0.98924700  0.67615800  0.42053400  1
  Li+  Li67  1  0.99916700  0.58456900  0.20617600  1
  O2-  O68  1  0.01708600  0.79943600  0.10231700  1
  O2-  O69  1  0.07694600  0.59289800  0.62412300  1
  O2-  O70  1  0.11204500  0.07840300  0.93829700  1
  O2-  O71  1  0.13168800  0.17622400  0.43706900  1
  O2-  O72  1  0.18093000  0.55036400  0.93540500  1
  O2-  O73  1  0.18914900  0.62758400  0.29678500  1
  O2-  O74  1  0.20267600  0.33567500  0.67397800  1
  O2-  O75  1  0.22118800  0.98919800  0.23216100  1
  O2-  O76  1  0.24088000  0.83022400  0.84773300  1
  O2-  O77  1  0.30097900  0.33275400  0.19001500  1
  O2-  O78  1  0.35189400  0.09877400  0.71543500  1
  O2-  O79  1  0.37955500  0.82906200  0.54054200  1
  O2-  O80  1  0.42020300  0.53406500  0.68277200  1
  O2-  O81  1  0.42408700  0.35125500  0.92231900  1
  O2-  O82  1  0.44107200  0.06152100  0.00254700  1
  O2-  O83  1  0.44569900  0.63036300  0.09539800  1
  O2-  O84  1  0.49941100  0.26483500  0.46734400  1
  O2-  O85  1  0.52831200  0.97457400  0.29347300  1
  O2-  O86  1  0.53012300  0.58197800  0.37887200  1
  O2-  O87  1  0.55145500  0.79071500  0.82569800  1
  O2-  O88  1  0.64764100  0.25867000  0.73572000  1
  O2-  O89  1  0.64967300  0.31617400  0.18755400  1
  O2-  O90  1  0.70284800  0.83206700  0.09756100  1
  O2-  O91  1  0.70747600  0.98023200  0.58945200  1
  O2-  O92  1  0.71089600  0.55127500  0.94551000  1
  O2-  O93  1  0.74903400  0.56203100  0.62467900  1
  O2-  O94  1  0.78587700  0.09092700  0.94533000  1
  O2-  O95  1  0.83580700  0.61705900  0.29878500  1
  O2-  O96  1  0.86416400  0.30720600  0.49544700  1
  O2-  O97  1  0.87317700  0.02882500  0.32330000  1
  O2-  O98  1  0.89245500  0.81821200  0.82747600  1
  O2-  O99  1  0.92710000  0.34987200  0.83995000  1
  O2-  O100  1  0.95616900  0.38548500  0.16671200  1
  O2-  O101  1  0.99053800  0.84338600  0.53248500  1
